data/state_estimation/SE_PT2030_W/state_estimation_PT2030_W_t13.csv
bus,vm_pu,va_degree,p_mw,q_mvar
1,1.040311,-0.081991,-0.058321,-42.142539
2,1.045099,0.035525,0.016531,-36.265461
3,1.041500,0.025519,0.073562,-19.815641
4,1.035821,0.217725,0.008014,-56.777187
5,1.027058,0.324714,761.809220,-86.409666
6,1.026211,0.192412,-0.097016,-1.086365
7,1.033658,0.239903,202.452991,1.709935
8,1.002496,-0.026764,0.014568,-0.076060
9,1.018464,-0.012599,-0.070533,0.036058
10,1.038648,0.374165,1319.511922,0.066214
11,1.014927,-0.027343,-1.024549,0.055146
12,1.021769,0.189327,0.083525,-0.013295
13,1.019209,-0.025778,-3.898088,-1.143863
14,1.020130,-0.007303,-0.011649,0.043504
15,1.036037,0.182269,0.152443,0.089084
16,1.016662,-0.046061,-0.089131,-0.025402
17,1.027537,-0.145020,-0.046514,-0.030174
18,1.019233,-0.190547,-0.043901,0.000222
19,1.008068,0.165318,0.084382,-0.017711
20,1.012948,-0.041009,0.069509,0.036583
21,1.023211,-0.174376,-0.033115,-0.000999
22,1.031017,0.245238,100.612725,17.231660
23,1.015819,0.187600,0.003832,-0.061438
24,1.028251,0.009537,-0.019781,-0.083585
25,1.022461,-0.172939,-0.017410,0.002537
26,1.033534,0.288998,-3.403233,-0.317811
27,1.025174,0.076468,0.019726,0.317575
28,1.032269,0.189958,-0.151657,0.144690
29,1.026658,0.196190,0.032274,0.003704
30,1.033811,-0.142118,31.026719,7.603575
31,1.021837,0.012103,-0.055092,-0.012344
32,1.031806,-0.147568,0.035111,0.048009
33,1.034240,-0.138257,0.061849,0.005086
34,1.025547,0.216926,0.005928,0.091195
35,1.011252,-0.069378,-0.001025,-0.107982
36,1.012798,-0.025501,0.007371,-0.035590
37,1.024681,-0.063839,-0.112691,-0.001648
38,1.026691,-0.100094,0.034086,-0.048552
39,1.020470,0.012554,0.042754,-0.065231
40,1.026505,0.192652,0.001128,-0.008941
41,1.026121,-0.106071,-0.009300,0.077881
42,1.019271,0.070352,-0.006197,0.020890
43,1.023591,-0.067018,-0.015564,-0.037363
44,1.026510,-0.069007,0.069822,0.012660
45,1.024586,-0.036247,0.008618,0.035861
46,1.022622,-0.050445,-0.001882,0.031633
47,1.029615,-0.069811,0.092668,-0.014827
48,1.021408,-0.060121,0.017096,0.006176
49,1.027743,-0.090479,0.045123,0.028917
50,1.025100,-0.056478,-29.126964,0.019185
51,1.026919,0.017447,0.035313,0.052351
52,1.024480,-0.015237,0.046322,0.009353
53,1.025177,-0.109029,0.085495,-0.069562
54,1.040169,0.105654,0.088670,-0.006761
55,1.022830,-0.069410,-0.040569,0.100917
56,1.024969,-0.073390,0.080302,0.016796
57,1.027917,-0.087752,-0.044230,0.057001
58,1.023495,-0.069793,0.031774,0.023231
59,1.026110,-0.064767,0.036140,-0.056726
60,1.030605,-0.062351,-0.053520,-0.010391
61,1.030221,-0.069563,90.023686,19.494588
62,1.020634,0.042701,0.005931,-0.001250
63,1.039396,0.088414,0.125870,0.019546
64,1.017650,-0.049351,0.008842,0.013854
65,1.021025,0.093195,0.039691,0.022177
66,1.029788,-0.046399,0.072558,0.022332
67,1.028433,-0.084132,-1.210026,0.150590
68,1.024108,-0.108522,0.017580,0.001762
69,1.023174,-0.030453,-0.025505,0.049043
70,1.025688,-0.008539,-0.028305,0.034716
71,1.020988,0.019342,-0.019067,-0.097982
72,1.015454,0.026805,-0.000414,-0.085056
73,1.029051,0.016068,0.031193,0.015322
74,1.023277,-0.036999,0.051314,0.005163
75,1.030004,-0.041123,0.031430,-0.015496
76,1.022836,-0.070084,0.029462,0.060881
77,1.033022,0.068072,0.063059,-0.003746
78,1.017142,0.052185,0.137235,0.013582
79,1.028627,-0.022453,-0.007517,-0.041410
80,1.039726,0.221336,0.027971,-0.014737
81,1.036990,-0.090622,0.042189,-0.019232
82,1.039750,-0.019367,0.066064,0.074689
83,1.041838,-0.014434,0.043514,0.031148
84,1.036620,0.018705,0.024886,0.007615
85,1.037345,-0.012786,-0.061117,0.012516
86,1.037142,0.032221,0.074642,0.051546
87,1.041115,0.144572,0.019849,-0.039272
88,1.037289,-0.094949,0.003347,0.017628
89,1.039030,-0.009429,-0.067991,0.057834
90,1.040771,-0.027286,-0.031323,0.004069
91,1.037921,-0.097590,0.023030,-0.080457
92,1.033898,-0.076420,0.076923,-0.091261
93,1.038339,-0.081875,0.032459,0.005027
94,1.038019,-0.085985,-0.016121,-0.088876
95,1.042113,-0.022108,-0.007260,-0.079770
96,1.039708,-0.081966,-0.002580,-0.035900
97,1.037690,0.021361,0.062339,-0.040787
98,1.042309,0.025152,-0.033691,0.019959
99,1.044125,0.031455,0.061000,-0.023388
100,1.043155,0.000048,0.034542,-0.060933
101,1.037302,-0.040691,-0.016320,0.021547
102,1.027792,0.188980,0.054343,-0.087150
103,1.041019,-0.039008,-0.046979,0.027758
104,1.036596,-0.096989,-0.021302,-0.083361
105,1.041522,0.217144,0.054473,0.061695
106,1.046381,0.036351,-0.074154,0.067797
107,1.029485,0.218386,0.082598,0.018165
108,1.016531,-0.166025,-16.459351,-1.190610
109,1.021769,-0.109099,-275.313527,9.142491
110,1.022792,-0.118438,-186.738799,-16.524277
111,1.025498,-0.159093,-177.264636,-7.749693
112,1.018269,-0.067164,-235.255817,8.431844
113,1.024110,0.338756,-81.453531,-13.114081
114,1.022387,0.014212,2.704399,-9.078148
115,1.004429,0.151764,-66.817665,1.481027
116,1.019330,-0.180290,-360.124543,-32.754229
117,1.016341,-0.056916,-59.955385,3.119904
118,1.016170,0.065909,-14.224400,-6.358688
119,1.034296,-0.089573,-271.095152,-29.620768
120,1.023576,-0.098215,-127.058104,-5.055589
121,1.021114,0.164369,-108.122523,-14.768180
122,1.034032,-0.085486,-248.446030,-18.651015
123,1.023700,-0.073851,-215.550576,0.655399
124,1.028070,-0.080350,-146.895175,21.877153
125,1.022053,-0.086559,-124.655395,-15.306129
126,1.028724,0.162079,-104.238850,1.700437
127,1.023677,-0.098545,-90.155927,-3.206459
128,1.035270,-0.198199,-348.545597,5.360098
129,1.035210,-0.141822,-278.329831,23.708001
130,1.018505,-0.171360,-381.200780,-42.364772
131,1.026525,-0.058521,-164.697527,-21.774457
132,1.012279,-0.022328,13.791455,-9.887415
133,1.006996,-0.236758,-145.999625,15.802481
134,1.023628,-0.173792,-202.846567,6.213439
135,1.027390,-0.115951,-221.340195,-12.949939
136,1.026238,-0.142774,-251.037136,-28.271405
137,1.027084,-0.137297,-140.560550,2.029670
138,1.023926,-0.110533,-141.206272,-23.230506
139,1.022498,-0.119979,-175.212919,-8.847549
140,1.018645,0.112333,-96.488012,3.358067
141,1.015680,-0.098384,-126.561914,-3.753752
142,1.024711,-0.246018,-153.056978,1.725793
143,1.018126,-0.090743,-50.189925,-4.071790
144,1.023513,-0.097293,-76.147709,-3.605600
145,1.020955,-0.048875,-221.251875,25.657532
146,1.016809,0.242757,-2.787341,-1.356375
147,1.023715,-0.056400,-83.263265,-5.249821
148,1.010194,-0.036578,-0.041486,-0.007683
149,1.020786,0.144886,-145.801461,-15.870975
150,1.025849,-0.051524,-81.198112,6.493656
151,1.024286,-0.239159,-216.109246,-19.984821
152,1.018428,0.007740,-97.064960,7.818300
153,1.025599,0.078982,-9.689616,-1.102592
154,1.016705,-0.093618,-100.552635,-6.992780
155,1.016092,0.081507,-35.988359,6.917533
156,1.019718,-0.054787,-19.490108,-3.646961
157,1.016846,-0.158777,-95.266873,-9.983944
158,1.026716,-0.084503,-101.423908,-0.333476
159,1.028032,0.228591,73.434973,22.155809
160,1.026109,-0.082184,-96.082538,-0.163090
161,1.016583,0.107867,183.147481,13.100470
162,1.021827,-0.031968,-73.436811,15.180660
163,1.024844,-0.142250,-7.552400,5.587687
164,1.023896,0.201611,-34.082962,2.238857
165,1.009576,0.005585,-40.253337,8.109843
166,1.019215,0.003876,85.943094,-17.898050
167,1.010384,-0.044974,-13.930195,4.837295
168,1.026912,-0.087182,-164.228953,-34.550527
169,1.025473,0.273774,118.143484,27.844608
170,1.017732,0.037813,-32.618407,18.786506
171,1.019105,-0.118507,-65.851237,-4.258943
172,1.010103,-0.035321,-30.237080,-0.895313
173,1.035583,-0.135410,72.071722,-7.346825
174,1.034785,-0.136552,20.938108,-3.004611
175,1.008757,0.011592,54.031723,-15.296340
176,1.008524,-0.000509,21.978638,7.223697
177,1.033983,-0.137514,0.018689,-0.553452
178,1.016876,-0.036012,29.030656,-6.900529
179,1.035087,-0.139345,31.195291,4.982534
180,1.019034,-0.017447,-0.076095,-0.051842
181,1.032070,0.018889,66.004682,10.037215
182,1.035808,-0.138214,-0.041557,18.080104
183,1.040481,0.226927,295.013426,10.122581
184,1.032710,-0.142533,0.026805,-0.080271
185,1.022344,0.035995,-0.030065,-0.029287
186,1.012383,0.077724,0.056089,0.014359
187,1.013026,-0.025411,26.433945,-6.012269
188,1.012562,-0.026302,26.551257,-8.907201
189,1.013363,-0.025370,26.498098,-8.882617
190,1.025437,-0.098713,0.130823,0.097579
191,1.042295,0.116420,184.436587,-8.528624
192,1.037166,0.090962,119.978202,-8.239361
193,1.030094,-0.084003,-0.001744,-0.003445
194,1.035530,0.037797,119.983202,29.605563
195,1.020344,0.019242,0.078120,-4.933101
196,1.027487,0.192770,92.987039,79.077520
197,1.027455,0.014105,-0.023861,0.027418
198,1.028386,0.191212,-0.034498,9.392810
199,1.023381,-0.014892,-0.034347,0.052316
200,1.040110,0.105858,32.451615,1.042737
201,1.040323,0.105813,32.395900,0.981178
202,1.040980,0.105510,32.509423,1.067785
203,1.040523,0.105833,122.573843,-11.242250
204,1.023713,-0.065962,-0.027216,0.077386
205,1.024267,-0.069381,-0.033610,0.102395
206,1.030762,-0.062516,35.063513,11.860495
207,1.029550,-0.062283,34.998923,9.861500
208,1.026655,-0.100617,-0.006608,0.099711
209,1.026438,-0.099853,0.100665,-0.009066
210,1.026388,-0.098740,0.038829,-0.054298
211,1.026708,-0.098810,-0.031101,0.028003
212,1.020308,0.042754,0.083398,-0.020131
213,1.024286,-0.063184,-0.007026,-0.060720
214,1.023875,-0.063011,0.059689,-0.008629
215,1.025548,-0.063927,0.100687,0.015671
216,1.025751,-0.063432,0.049272,-0.078286
217,1.026673,-0.061985,0.079863,-0.006518
218,1.030569,-0.045439,100.506865,48.312329
219,1.022427,-0.069492,-0.034946,-0.041924
220,1.032139,-0.077837,594.062912,170.751905
221,1.031238,-0.078823,-0.024357,-0.002980
222,1.022814,-0.050977,235.209969,43.727925
223,1.019108,0.084317,0.029043,0.093706
224,1.030229,-0.070939,0.030690,-0.041431
225,1.045913,0.040751,95.513072,-7.517868
226,1.039486,0.067280,0.032135,0.041625
227,1.039713,0.217422,-0.054565,-3.953789
228,1.041033,0.216229,0.031744,-5.794519
229,1.038770,-0.097299,-0.018577,34.882897
230,1.038494,-0.097435,0.001323,20.042163
231,1.043240,-0.026973,0.051774,16.604191
232,1.040209,-0.081795,157.577815,-4.816876
233,1.039764,-0.082150,157.509576,-5.420219
234,1.042260,0.147886,117.994972,28.516902
235,1.042900,0.148030,117.973462,29.250639
236,1.042433,0.147067,118.001677,29.217662
237,1.044687,0.031690,115.152892,-9.216214
238,1.043451,0.031676,115.255948,-9.308241
239,1.043520,0.000146,235.288309,-9.956189
240,1.042655,-0.000598,235.218431,35.178164
241,1.043430,-0.017173,247.747714,-5.004008
242,1.043482,-0.017704,247.806812,-8.472125
243,1.042888,0.030391,251.133827,-12.344052
244,1.044089,0.030302,251.065450,-9.236548
245,1.022410,0.231648,-36.214212,-11.476365
246,1.019250,-0.016921,-16.430920,-3.742177
247,1.011476,0.077773,-1.796709,0.128553
248,1.025253,0.011615,-0.742285,0.288791
249,1.019841,-0.016506,-4.029919,0.795012
250,1.037625,0.180082,-34.938042,32.339727
251,1.025068,-0.174278,0.705394,3.312928
252,1.028467,0.011951,1.895372,-0.798472
253,1.024992,0.012151,0.482967,4.506177
254,1.031192,-0.146522,0.816526,-3.725555
255,1.036209,0.167780,-125.256055,32.752727
256,1.025662,-0.098964,-7.531116,-0.427496
257,1.020324,0.081593,-0.952377,0.427820
258,1.020563,0.023777,-1.234490,0.325929
259,1.021562,0.067915,-0.094382,0.442048
260,0.997246,-0.100632,-109.727961,-34.836198
261,1.019119,0.035516,-0.833974,0.388449
262,1.020160,0.104455,182.083324,-28.282994
263,1.020593,0.043507,0.638225,-0.994255
264,1.029321,-0.070201,1.990644,-3.274260
265,1.019575,0.083539,100.996635,-6.220948
266,1.020724,0.043292,0.576410,6.587675
267,1.028031,-0.040853,1.099925,-16.645413
268,1.041722,-0.027320,0.846995,26.749258
269,1.002175,0.116812,0.041504,-0.004774
270,1.001887,0.116489,0.000129,0.062928
271,1.003386,0.091648,-0.079204,-0.028133
272,1.008064,0.035952,-0.095856,-0.019853
273,1.025928,-0.163098,29.984721,8.686216
274,1.025652,-0.163902,-0.015807,-0.065015
275,1.024597,-0.165434,0.009331,0.030142
276,1.020740,-0.174001,0.037072,0.031646
277,1.021106,-0.175180,0.044401,-0.051956
278,1.019667,-0.176321,-0.010031,-0.098231
279,1.018659,-0.179450,0.028599,-0.007520
280,1.020609,-0.169896,-0.018889,-0.018232
281,1.022003,-0.167183,-0.003547,0.015782
282,1.024916,-0.164968,0.018437,-0.014202
283,1.013008,-0.022173,0.012832,0.015261
284,1.018425,-0.042062,0.026479,-0.012120
285,1.017971,-0.041967,0.049703,0.051208
286,1.020560,-0.049067,0.092204,0.045347
287,1.007328,-0.237021,0.086976,-0.043199
288,1.006931,-0.235844,-0.059169,-0.016349
289,1.009583,-0.236441,0.052135,0.025561
290,1.011425,-0.236504,-0.038259,-0.050946
291,1.010535,-0.237415,0.074741,0.009310
292,1.010957,-0.236124,0.027194,0.082103
293,1.012622,-0.235769,0.812868,-0.294350
294,1.011083,-0.039518,-0.006374,-0.118325
295,1.010895,-0.043339,0.050274,-0.011661
296,1.010603,-0.044171,0.018120,-0.007474
297,1.010395,-0.044219,-0.042226,0.011085
298,1.012162,-0.004199,0.025758,-0.020942
299,1.011928,-0.004928,0.013970,0.004160
300,1.012316,-0.003599,0.038962,-0.041287
301,1.011490,-0.012695,0.047821,-0.000473
302,1.011736,-0.021529,-0.106325,0.075939
303,1.011069,-0.029844,-0.030072,-0.040870
304,1.009794,-0.029840,-0.034878,0.018244
